// Generated for: spectre
// Generated on: May 10 13:41:46 2022
// Design library name: Project_Lib1_sim
// Design cell name: trans_gate_sim
// Design view name: schematic
simulator lang=spectre
global 0
