simulator lang=spectre
include "dionw_l130e.scs"
