// Generated for: spectre
// Generated on: May  3 17:01:30 2022
// Design library name: Project_Lib1_sim
// Design cell name: photodiode_sim
// Design view name: schematic
simulator lang=spectre
global 0
