// Generated for: spectre
// Generated on: Apr 27 10:30:31 2022
// Design library name: Project_Lib1_sim
// Design cell name: dff_ext_reset_sim
// Design view name: schematic
simulator lang=spectre
global 0
