// Generated for: spectre
// Generated on: Apr 27 10:55:27 2022
// Design library name: Project_Lib1_sim
// Design cell name: dflipflop_sim
// Design view name: schematic
simulator lang=spectre
global 0
