// Generated for: spectre
// Generated on: Apr 26 13:37:28 2022
// Design library name: Project_Lib1_sim
// Design cell name: dflipflop_sim
// Design view name: schematic
simulator lang=spectre
global 0
