// Generated for: spectre
// Generated on: May  2 12:40:49 2022
// Design library name: Project_Lib1_sim
// Design cell name: dflipflop_sim
// Design view name: schematic
simulator lang=spectre
global 0
