// Generated for: spectre
// Generated on: May  9 15:05:50 2022
// Design library name: Project_Lib1_sim
// Design cell name: dflipflop_sim
// Design view name: schematic
simulator lang=spectre
global 0
