// Generated for: spectre
// Generated on: May  3 16:18:15 2022
// Design library name: Project_Lib1_sim
// Design cell name: inv_sim
// Design view name: schematic
simulator lang=spectre
global 0
