// Generated for: spectre
// Generated on: Apr 26 17:34:53 2022
// Design library name: Project_Lib1_sim
// Design cell name: inv_sim
// Design view name: schematic
simulator lang=spectre
global 0
