simulator lang=spectre
include "n_12_hsl130e.scs"
include "p_12_hsl130e.scs"
