// Generated for: spectre
// Generated on: May  9 13:40:21 2022
// Design library name: Project_Lib1_sim
// Design cell name: delay_chain_sim
// Design view name: schematic
simulator lang=spectre
global 0
